       2
GEOMETRY FILE / created by CPMD
  H      3.000000000000      3.000000000000      3.000000000000              0.000000000000      0.000000000000      0.000000000000
  H      3.740000000000      3.000000000000      3.000000000000              0.000000000000      0.000000000000      0.000000000000
