55
H:1-5 N:6-7 O:8-9
H         16.84000        6.58500        9.02200
H         14.27000        7.19100        7.82600
H         13.93300        8.89400        7.48800
H         13.72600        7.89300        9.97700
H         15.86400        7.43800       10.98900
N         16.32100        9.48000       10.73600
N         14.32000        9.89800        9.87400
O         15.39200       11.59000       11.05400
S         16.34200        8.43400        7.51400
C         14.53200        8.49500        9.54700
C         15.93600        8.18800       10.18900
C         15.33200       10.41000       10.58000
H         13.39700       10.38600        9.66100
C         16.89500        7.67800        9.09300
H         17.92900        7.96600        9.29700
C         14.59100        8.21700        8.03200
H         17.05800        9.60200       11.43200
O         11.95600       11.03600        9.33000
C         11.18200       10.19400        8.74600
O         11.48400        9.01700        8.45100
C          9.78000       10.71700        8.40400
H          9.26800       11.02600        9.32200
H          9.86000       11.60700        7.76900
H          9.19100        9.95100        7.89400
H         13.87300       12.98700       10.63400
N         13.00600       13.45200       10.37900
H         12.29800       12.86100        9.93500
C         12.83600       14.76500       10.60800
O         11.83600       15.43300       10.34100
H         13.72000       15.23100       11.08900
H         14.94500       11.58400       12.89900
O         14.76900       11.48200       13.85400
C         13.37300       11.63000       14.07700
H         13.20000       11.49400       15.14900
H         13.01100       12.62600       13.78900
H         12.78600       10.87900       13.53000
O         18.44200       10.17300       12.69400
H         18.41600       11.09100       12.36000
C         18.09600       10.17800       14.08100
H         18.84200       10.72600       14.67400
H         17.10400       10.61200       14.25400
H         18.09100        9.13600       14.41400
H         16.84800       12.28700       11.29300
O         17.75900       12.63600       11.53400
C         18.28900       13.43400       10.56700
C         19.56000       13.98300       10.79000
C         17.60600       13.72000        9.37500
C         20.14000       14.81100        9.82800
H         20.07400       13.75500       11.71900
C         18.19800       14.55200        8.42200
H         16.62400       13.29100        9.20200
C         19.46500       15.10200        8.63700
H         21.12600       15.23100       10.01200
H         17.66000       14.76700        7.50300
H         19.91900       15.74800        7.89100
