16

Ga  0.0000   0.0000   0.0000
Ga  0.5000   0.5000   0.0000
Ga  0.5000   0.0000   0.5000
Ga  0.0000   0.5000   0.5000
Ga  1.0000   0.0000   0.0000
Ga  1.5000   0.5000   0.0000
Ga  1.5000   0.0000   0.5000
Ga  1.0000   0.5000   0.5000
As  0.2500   0.2500   0.2500
As  0.7500   0.7500   0.2500
As  0.7500   0.2500   0.7500
As  0.2500   0.7500   0.7500
As  1.2500   0.2500   0.2500
As  1.7500   0.7500   0.2500
As  1.7500   0.2500   0.7500
As  1.2500   0.7500   0.7500

celldm: 11.307 5.6535 5.6535 0 0 0
scale: 2 1 1
charge: 0
