17
H:1-5 N:6-7 O:8-9
H         16.84000        6.58500        9.02200
H         14.27000        7.19100        7.82600
H         13.93300        8.89400        7.48800
H         13.72600        7.89300        9.97700
H         15.86400        7.43800       10.98900
N         16.32100        9.48000       10.73600
N         14.32000        9.89800        9.87400
O         15.39200       11.59000       11.05400
S         16.34200        8.43400        7.51400
C         14.53200        8.49500        9.54700
C         15.93600        8.18800       10.18900
C         15.33200       10.41000       10.58000
H         13.39700       10.38600        9.66100
C         16.89500        7.67800        9.09300
H         17.92900        7.96600        9.29700
C         14.59100        8.21700        8.03200
H         17.05800        9.60200       11.43200
